Version 4
SHEET 1 880 680
WIRE 160 32 144 32
WIRE 176 32 160 32
WIRE 272 32 256 32
WIRE 352 112 208 112
WIRE 160 128 160 32
WIRE 176 128 160 128
WIRE 272 144 272 32
WIRE 272 144 240 144
WIRE 176 160 144 160
WIRE 208 192 208 176
WIRE 352 192 208 192
FLAG 64 32 0
FLAG 208 192 0
FLAG 144 240 0
SYMBOL Opamps\\UniversalOpamp2 208 144 R0
SYMATTR InstName U1
SYMBOL res 272 16 R90
WINDOW 0 0 56 VBottom 2
WINDOW 3 32 56 VTop 2
SYMATTR InstName R1
SYMATTR Value 12k
SYMBOL res 160 16 R90
WINDOW 0 0 56 VBottom 2
WINDOW 3 32 56 VTop 2
SYMATTR InstName R2
SYMATTR Value 12k
SYMBOL voltage 352 96 R0
WINDOW 123 0 0 Left 2
WINDOW 39 0 0 Left 2
SYMATTR InstName V1
SYMATTR Value 5V
SYMBOL voltage 144 144 R0
WINDOW 0 -52 19 Left 2
WINDOW 3 -53 86 Left 2
WINDOW 123 0 0 Left 2
WINDOW 39 0 0 Left 2
SYMATTR InstName V2
SYMATTR Value 3V
TEXT 44 288 Left 2 !.tran 1ms
